123324
  -OEChem-04151804542D

  5  4  0     0  0  0  0  0  0999 V2000
    2.7071    0.0000    0.0000 Xe  0  0  0  0  0  0  0  0  0  0  0  0
    3.4142    0.7071    0.0000 F   0  0  0  0  0  0  0  0  0  0  0  0
    2.0000   -0.7071    0.0000 F   0  0  0  0  0  0  0  0  0  0  0  0
    3.4142   -0.7071    0.0000 F   0  0  0  0  0  0  0  0  0  0  0  0
    2.0000    0.7071    0.0000 F   0  0  0  0  0  0  0  0  0  0  0  0
  1  2  1  6  0  0  0
  1  3  1  1  0  0  0
  1  4  1  1  0  0  0
  1  5  1  6  0  0  0
M  END
> <PUBCHEM_COMPOUND_CID>
123324

> <PUBCHEM_COMPOUND_CANONICALIZED>
1

> <PUBCHEM_CACTVS_COMPLEXITY>
19.1

> <PUBCHEM_CACTVS_HBOND_ACCEPTOR>
4

> <PUBCHEM_CACTVS_HBOND_DONOR>
0

> <PUBCHEM_CACTVS_ROTATABLE_BOND>
0

> <PUBCHEM_CACTVS_SUBSKEYS>
AAADcQAAAcAAAAAAAAAQAAAAAAAAAAAAAAAAAAAAAAAAAAAAAAAAAAAAAAAAAAAAAAAAAAAAAAAAAAAAAAAAAAAAAAAAAAAAAAAAAAAAAAAAAAAAAAAAAAAAAAAAAAAAAAAAAAAAAAAAAAAAAAAAAAAAAA==

> <PUBCHEM_IUPAC_OPENEYE_NAME>
tetrafluoroxenon

> <PUBCHEM_IUPAC_CAS_NAME>
tetrafluoroxenon

> <PUBCHEM_IUPAC_NAME>
tetrafluoroxenon

> <PUBCHEM_IUPAC_SYSTEMATIC_NAME>
tetrakis(fluoranyl)xenon

> <PUBCHEM_IUPAC_TRADITIONAL_NAME>
tetrafluoroxenon

> <PUBCHEM_IUPAC_INCHI>
InChI=1S/F4Xe/c1-5(2,3)4

> <PUBCHEM_IUPAC_INCHIKEY>
RPSSQXXJRBEGEE-UHFFFAOYSA-N

> <PUBCHEM_EXACT_MASS>
207.898

> <PUBCHEM_MOLECULAR_FORMULA>
F4Xe

> <PUBCHEM_MOLECULAR_WEIGHT>
207.287

> <PUBCHEM_OPENEYE_CAN_SMILES>
F[Xe](F)(F)F

> <PUBCHEM_OPENEYE_ISO_SMILES>
F[Xe](F)(F)F

> <PUBCHEM_CACTVS_TPSA>
0

> <PUBCHEM_MONOISOTOPIC_WEIGHT>
207.898

> <PUBCHEM_TOTAL_CHARGE>
0

> <PUBCHEM_HEAVY_ATOM_COUNT>
5

> <PUBCHEM_ATOM_DEF_STEREO_COUNT>
0

> <PUBCHEM_ATOM_UDEF_STEREO_COUNT>
0

> <PUBCHEM_BOND_DEF_STEREO_COUNT>
0

> <PUBCHEM_BOND_UDEF_STEREO_COUNT>
0

> <PUBCHEM_ISOTOPIC_ATOM_COUNT>
0

> <PUBCHEM_COMPONENT_COUNT>
1

> <PUBCHEM_CACTVS_TAUTO_COUNT>
1

> <PUBCHEM_COORDINATE_TYPE>
1
5
255

> <PUBCHEM_BONDANNOTATIONS>
1  2  6
1  3  5
1  4  5
1  5  6

$$$$
